/*--------------------------------*- C++ -*----------------------------------*\
| =========                 |                                                 |
| \\      /  F ield         | OpenFOAM: The Open Source CFD Toolbox           |
|  \\    /   O peration     | Version:  2212                                  |
|   \\  /    A nd           | Website:  www.openfoam.com                      |
|    \\/     M anipulation  |                                                 |
\*---------------------------------------------------------------------------*/
FoamFile
{
    version     2.0;
    format      binary;
    arch        "LSB;label=32;scalar=64";
    class       polyBoundaryMesh;
    location    "constant/polyMesh";
    object      boundary;
}
// * * * * * * * * * * * * * * * * * * * * * * * * * * * * * * * * * * * * * //

5
(
    bottom
    {
        type            wall;
        inGroups        1(wall);
        nFaces          16;
        startFace       480;
    }
    top
    {
        type            wall;
        inGroups        1(wall);
        nFaces          16;
        startFace       496;
    }
    left
    {
        type            cyclic;
        inGroups        1(cyclic);
        nFaces          16;
        startFace       512;
        matchTolerance  0.0001;
        transform       unknown;
        neighbourPatch  right;
    }
    right
    {
        type            cyclic;
        inGroups        1(cyclic);
        nFaces          16;
        startFace       528;
        matchTolerance  0.0001;
        transform       unknown;
        neighbourPatch  left;
    }
    defaultFaces
    {
        type            empty;
        inGroups        1(empty);
        nFaces          512;
        startFace       544;
    }
)

// ************************************************************************* //
